
---------- Begin Simulation Statistics ----------
sim_seconds                                  0.002035                       # Number of seconds simulated
sim_ticks                                  2034751000                       # Number of ticks simulated
final_tick                                 2034751000                       # Number of ticks from beginning of simulation (restored from checkpoints and never reset)
sim_freq                                 1000000000000                       # Frequency of simulated ticks
host_inst_rate                                  95398                       # Simulator instruction rate (inst/s)
host_op_rate                                   144380                       # Simulator op (including micro ops) rate (op/s)
host_tick_rate                               91814322                       # Simulator tick rate (ticks/s)
host_mem_usage                                 669160                       # Number of bytes of host memory used
host_seconds                                    22.16                       # Real time elapsed on the host
sim_insts                                     2114178                       # Number of instructions simulated
sim_ops                                       3199690                       # Number of ops (including micro ops) simulated
system.voltage_domain.voltage                       1                       # Voltage in Volts
system.clk_domain.clock                          1000                       # Clock period in ticks
system.mem_ctrls.bytes_read::cpu.inst       190975424                       # Number of bytes read from this memory
system.mem_ctrls.bytes_read::cpu.data        38543808                       # Number of bytes read from this memory
system.mem_ctrls.bytes_read::total          229519232                       # Number of bytes read from this memory
system.mem_ctrls.bytes_inst_read::cpu.inst    190975424                       # Number of instructions bytes read from this memory
system.mem_ctrls.bytes_inst_read::total     190975424                       # Number of instructions bytes read from this memory
system.mem_ctrls.num_reads::cpu.inst          2983991                       # Number of read requests responded to by this memory
system.mem_ctrls.num_reads::cpu.data           602247                       # Number of read requests responded to by this memory
system.mem_ctrls.num_reads::total             3586238                       # Number of read requests responded to by this memory
system.mem_ctrls.bw_read::cpu.inst        93856901410                       # Total read bandwidth from this memory (bytes/s)
system.mem_ctrls.bw_read::cpu.data        18942764004                       # Total read bandwidth from this memory (bytes/s)
system.mem_ctrls.bw_read::total          112799665414                       # Total read bandwidth from this memory (bytes/s)
system.mem_ctrls.bw_inst_read::cpu.inst   93856901410                       # Instruction read bandwidth from this memory (bytes/s)
system.mem_ctrls.bw_inst_read::total      93856901410                       # Instruction read bandwidth from this memory (bytes/s)
system.mem_ctrls.bw_total::cpu.inst       93856901410                       # Total bandwidth to/from this memory (bytes/s)
system.mem_ctrls.bw_total::cpu.data       18942764004                       # Total bandwidth to/from this memory (bytes/s)
system.mem_ctrls.bw_total::total         112799665414                       # Total bandwidth to/from this memory (bytes/s)
system.mem_ctrls.readReqs                           0                       # Number of read requests accepted
system.mem_ctrls.writeReqs                          0                       # Number of write requests accepted
system.mem_ctrls.readBursts                         0                       # Number of DRAM read bursts, including those serviced by the write queue
system.mem_ctrls.writeBursts                        0                       # Number of DRAM write bursts, including those merged in the write queue
system.mem_ctrls.bytesReadDRAM                      0                       # Total number of bytes read from DRAM
system.mem_ctrls.bytesReadWrQ                       0                       # Total number of bytes read from write queue
system.mem_ctrls.bytesWritten                       0                       # Total number of bytes written to DRAM
system.mem_ctrls.bytesReadSys                       0                       # Total read bytes from the system interface side
system.mem_ctrls.bytesWrittenSys                    0                       # Total written bytes from the system interface side
system.mem_ctrls.servicedByWrQ                      0                       # Number of DRAM read bursts serviced by the write queue
system.mem_ctrls.mergedWrBursts                     0                       # Number of DRAM write bursts merged with an existing one
system.mem_ctrls.neitherReadNorWriteReqs            0                       # Number of requests that are neither read nor write
system.mem_ctrls.perBankRdBursts::0                 0                       # Per bank write bursts
system.mem_ctrls.perBankRdBursts::1                 0                       # Per bank write bursts
system.mem_ctrls.perBankRdBursts::2                 0                       # Per bank write bursts
system.mem_ctrls.perBankRdBursts::3                 0                       # Per bank write bursts
system.mem_ctrls.perBankRdBursts::4                 0                       # Per bank write bursts
system.mem_ctrls.perBankRdBursts::5                 0                       # Per bank write bursts
system.mem_ctrls.perBankRdBursts::6                 0                       # Per bank write bursts
system.mem_ctrls.perBankRdBursts::7                 0                       # Per bank write bursts
system.mem_ctrls.perBankRdBursts::8                 0                       # Per bank write bursts
system.mem_ctrls.perBankRdBursts::9                 0                       # Per bank write bursts
system.mem_ctrls.perBankRdBursts::10                0                       # Per bank write bursts
system.mem_ctrls.perBankRdBursts::11                0                       # Per bank write bursts
system.mem_ctrls.perBankRdBursts::12                0                       # Per bank write bursts
system.mem_ctrls.perBankRdBursts::13                0                       # Per bank write bursts
system.mem_ctrls.perBankRdBursts::14                0                       # Per bank write bursts
system.mem_ctrls.perBankRdBursts::15                0                       # Per bank write bursts
system.mem_ctrls.perBankWrBursts::0                 0                       # Per bank write bursts
system.mem_ctrls.perBankWrBursts::1                 0                       # Per bank write bursts
system.mem_ctrls.perBankWrBursts::2                 0                       # Per bank write bursts
system.mem_ctrls.perBankWrBursts::3                 0                       # Per bank write bursts
system.mem_ctrls.perBankWrBursts::4                 0                       # Per bank write bursts
system.mem_ctrls.perBankWrBursts::5                 0                       # Per bank write bursts
system.mem_ctrls.perBankWrBursts::6                 0                       # Per bank write bursts
system.mem_ctrls.perBankWrBursts::7                 0                       # Per bank write bursts
system.mem_ctrls.perBankWrBursts::8                 0                       # Per bank write bursts
system.mem_ctrls.perBankWrBursts::9                 0                       # Per bank write bursts
system.mem_ctrls.perBankWrBursts::10                0                       # Per bank write bursts
system.mem_ctrls.perBankWrBursts::11                0                       # Per bank write bursts
system.mem_ctrls.perBankWrBursts::12                0                       # Per bank write bursts
system.mem_ctrls.perBankWrBursts::13                0                       # Per bank write bursts
system.mem_ctrls.perBankWrBursts::14                0                       # Per bank write bursts
system.mem_ctrls.perBankWrBursts::15                0                       # Per bank write bursts
system.mem_ctrls.numRdRetry                         0                       # Number of times read queue was full causing retry
system.mem_ctrls.numWrRetry                         0                       # Number of times write queue was full causing retry
system.mem_ctrls.totGap                             0                       # Total gap between requests
system.mem_ctrls.readPktSize::0                     0                       # Read request sizes (log2)
system.mem_ctrls.readPktSize::1                     0                       # Read request sizes (log2)
system.mem_ctrls.readPktSize::2                     0                       # Read request sizes (log2)
system.mem_ctrls.readPktSize::3                     0                       # Read request sizes (log2)
system.mem_ctrls.readPktSize::4                     0                       # Read request sizes (log2)
system.mem_ctrls.readPktSize::5                     0                       # Read request sizes (log2)
system.mem_ctrls.readPktSize::6                     0                       # Read request sizes (log2)
system.mem_ctrls.writePktSize::0                    0                       # Write request sizes (log2)
system.mem_ctrls.writePktSize::1                    0                       # Write request sizes (log2)
system.mem_ctrls.writePktSize::2                    0                       # Write request sizes (log2)
system.mem_ctrls.writePktSize::3                    0                       # Write request sizes (log2)
system.mem_ctrls.writePktSize::4                    0                       # Write request sizes (log2)
system.mem_ctrls.writePktSize::5                    0                       # Write request sizes (log2)
system.mem_ctrls.writePktSize::6                    0                       # Write request sizes (log2)
system.mem_ctrls.rdQLenPdf::0                       0                       # What read queue length does an incoming req see
system.mem_ctrls.rdQLenPdf::1                       0                       # What read queue length does an incoming req see
system.mem_ctrls.rdQLenPdf::2                       0                       # What read queue length does an incoming req see
system.mem_ctrls.rdQLenPdf::3                       0                       # What read queue length does an incoming req see
system.mem_ctrls.rdQLenPdf::4                       0                       # What read queue length does an incoming req see
system.mem_ctrls.rdQLenPdf::5                       0                       # What read queue length does an incoming req see
system.mem_ctrls.rdQLenPdf::6                       0                       # What read queue length does an incoming req see
system.mem_ctrls.rdQLenPdf::7                       0                       # What read queue length does an incoming req see
system.mem_ctrls.rdQLenPdf::8                       0                       # What read queue length does an incoming req see
system.mem_ctrls.rdQLenPdf::9                       0                       # What read queue length does an incoming req see
system.mem_ctrls.rdQLenPdf::10                      0                       # What read queue length does an incoming req see
system.mem_ctrls.rdQLenPdf::11                      0                       # What read queue length does an incoming req see
system.mem_ctrls.rdQLenPdf::12                      0                       # What read queue length does an incoming req see
system.mem_ctrls.rdQLenPdf::13                      0                       # What read queue length does an incoming req see
system.mem_ctrls.rdQLenPdf::14                      0                       # What read queue length does an incoming req see
system.mem_ctrls.rdQLenPdf::15                      0                       # What read queue length does an incoming req see
system.mem_ctrls.rdQLenPdf::16                      0                       # What read queue length does an incoming req see
system.mem_ctrls.rdQLenPdf::17                      0                       # What read queue length does an incoming req see
system.mem_ctrls.rdQLenPdf::18                      0                       # What read queue length does an incoming req see
system.mem_ctrls.rdQLenPdf::19                      0                       # What read queue length does an incoming req see
system.mem_ctrls.rdQLenPdf::20                      0                       # What read queue length does an incoming req see
system.mem_ctrls.rdQLenPdf::21                      0                       # What read queue length does an incoming req see
system.mem_ctrls.rdQLenPdf::22                      0                       # What read queue length does an incoming req see
system.mem_ctrls.rdQLenPdf::23                      0                       # What read queue length does an incoming req see
system.mem_ctrls.rdQLenPdf::24                      0                       # What read queue length does an incoming req see
system.mem_ctrls.rdQLenPdf::25                      0                       # What read queue length does an incoming req see
system.mem_ctrls.rdQLenPdf::26                      0                       # What read queue length does an incoming req see
system.mem_ctrls.rdQLenPdf::27                      0                       # What read queue length does an incoming req see
system.mem_ctrls.rdQLenPdf::28                      0                       # What read queue length does an incoming req see
system.mem_ctrls.rdQLenPdf::29                      0                       # What read queue length does an incoming req see
system.mem_ctrls.rdQLenPdf::30                      0                       # What read queue length does an incoming req see
system.mem_ctrls.rdQLenPdf::31                      0                       # What read queue length does an incoming req see
system.mem_ctrls.wrQLenPdf::0                       0                       # What write queue length does an incoming req see
system.mem_ctrls.wrQLenPdf::1                       0                       # What write queue length does an incoming req see
system.mem_ctrls.wrQLenPdf::2                       0                       # What write queue length does an incoming req see
system.mem_ctrls.wrQLenPdf::3                       0                       # What write queue length does an incoming req see
system.mem_ctrls.wrQLenPdf::4                       0                       # What write queue length does an incoming req see
system.mem_ctrls.wrQLenPdf::5                       0                       # What write queue length does an incoming req see
system.mem_ctrls.wrQLenPdf::6                       0                       # What write queue length does an incoming req see
system.mem_ctrls.wrQLenPdf::7                       0                       # What write queue length does an incoming req see
system.mem_ctrls.wrQLenPdf::8                       0                       # What write queue length does an incoming req see
system.mem_ctrls.wrQLenPdf::9                       0                       # What write queue length does an incoming req see
system.mem_ctrls.wrQLenPdf::10                      0                       # What write queue length does an incoming req see
system.mem_ctrls.wrQLenPdf::11                      0                       # What write queue length does an incoming req see
system.mem_ctrls.wrQLenPdf::12                      0                       # What write queue length does an incoming req see
system.mem_ctrls.wrQLenPdf::13                      0                       # What write queue length does an incoming req see
system.mem_ctrls.wrQLenPdf::14                      0                       # What write queue length does an incoming req see
system.mem_ctrls.wrQLenPdf::15                      0                       # What write queue length does an incoming req see
system.mem_ctrls.wrQLenPdf::16                      0                       # What write queue length does an incoming req see
system.mem_ctrls.wrQLenPdf::17                      0                       # What write queue length does an incoming req see
system.mem_ctrls.wrQLenPdf::18                      0                       # What write queue length does an incoming req see
system.mem_ctrls.wrQLenPdf::19                      0                       # What write queue length does an incoming req see
system.mem_ctrls.wrQLenPdf::20                      0                       # What write queue length does an incoming req see
system.mem_ctrls.wrQLenPdf::21                      0                       # What write queue length does an incoming req see
system.mem_ctrls.wrQLenPdf::22                      0                       # What write queue length does an incoming req see
system.mem_ctrls.wrQLenPdf::23                      0                       # What write queue length does an incoming req see
system.mem_ctrls.wrQLenPdf::24                      0                       # What write queue length does an incoming req see
system.mem_ctrls.wrQLenPdf::25                      0                       # What write queue length does an incoming req see
system.mem_ctrls.wrQLenPdf::26                      0                       # What write queue length does an incoming req see
system.mem_ctrls.wrQLenPdf::27                      0                       # What write queue length does an incoming req see
system.mem_ctrls.wrQLenPdf::28                      0                       # What write queue length does an incoming req see
system.mem_ctrls.wrQLenPdf::29                      0                       # What write queue length does an incoming req see
system.mem_ctrls.wrQLenPdf::30                      0                       # What write queue length does an incoming req see
system.mem_ctrls.wrQLenPdf::31                      0                       # What write queue length does an incoming req see
system.mem_ctrls.wrQLenPdf::32                      0                       # What write queue length does an incoming req see
system.mem_ctrls.wrQLenPdf::33                      0                       # What write queue length does an incoming req see
system.mem_ctrls.wrQLenPdf::34                      0                       # What write queue length does an incoming req see
system.mem_ctrls.wrQLenPdf::35                      0                       # What write queue length does an incoming req see
system.mem_ctrls.wrQLenPdf::36                      0                       # What write queue length does an incoming req see
system.mem_ctrls.wrQLenPdf::37                      0                       # What write queue length does an incoming req see
system.mem_ctrls.wrQLenPdf::38                      0                       # What write queue length does an incoming req see
system.mem_ctrls.wrQLenPdf::39                      0                       # What write queue length does an incoming req see
system.mem_ctrls.wrQLenPdf::40                      0                       # What write queue length does an incoming req see
system.mem_ctrls.wrQLenPdf::41                      0                       # What write queue length does an incoming req see
system.mem_ctrls.wrQLenPdf::42                      0                       # What write queue length does an incoming req see
system.mem_ctrls.wrQLenPdf::43                      0                       # What write queue length does an incoming req see
system.mem_ctrls.wrQLenPdf::44                      0                       # What write queue length does an incoming req see
system.mem_ctrls.wrQLenPdf::45                      0                       # What write queue length does an incoming req see
system.mem_ctrls.wrQLenPdf::46                      0                       # What write queue length does an incoming req see
system.mem_ctrls.wrQLenPdf::47                      0                       # What write queue length does an incoming req see
system.mem_ctrls.wrQLenPdf::48                      0                       # What write queue length does an incoming req see
system.mem_ctrls.wrQLenPdf::49                      0                       # What write queue length does an incoming req see
system.mem_ctrls.wrQLenPdf::50                      0                       # What write queue length does an incoming req see
system.mem_ctrls.wrQLenPdf::51                      0                       # What write queue length does an incoming req see
system.mem_ctrls.wrQLenPdf::52                      0                       # What write queue length does an incoming req see
system.mem_ctrls.wrQLenPdf::53                      0                       # What write queue length does an incoming req see
system.mem_ctrls.wrQLenPdf::54                      0                       # What write queue length does an incoming req see
system.mem_ctrls.wrQLenPdf::55                      0                       # What write queue length does an incoming req see
system.mem_ctrls.wrQLenPdf::56                      0                       # What write queue length does an incoming req see
system.mem_ctrls.wrQLenPdf::57                      0                       # What write queue length does an incoming req see
system.mem_ctrls.wrQLenPdf::58                      0                       # What write queue length does an incoming req see
system.mem_ctrls.wrQLenPdf::59                      0                       # What write queue length does an incoming req see
system.mem_ctrls.wrQLenPdf::60                      0                       # What write queue length does an incoming req see
system.mem_ctrls.wrQLenPdf::61                      0                       # What write queue length does an incoming req see
system.mem_ctrls.wrQLenPdf::62                      0                       # What write queue length does an incoming req see
system.mem_ctrls.wrQLenPdf::63                      0                       # What write queue length does an incoming req see
system.mem_ctrls.totQLat                            0                       # Total ticks spent queuing
system.mem_ctrls.totMemAccLat                       0                       # Total ticks spent from burst creation until serviced by the DRAM
system.mem_ctrls.totBusLat                          0                       # Total ticks spent in databus transfers
system.mem_ctrls.avgQLat                          nan                       # Average queueing delay per DRAM burst
system.mem_ctrls.avgBusLat                        nan                       # Average bus latency per DRAM burst
system.mem_ctrls.avgMemAccLat                     nan                       # Average memory access latency per DRAM burst
system.mem_ctrls.avgRdBW                         0.00                       # Average DRAM read bandwidth in MiByte/s
system.mem_ctrls.avgWrBW                         0.00                       # Average achieved write bandwidth in MiByte/s
system.mem_ctrls.avgRdBWSys                      0.00                       # Average system read bandwidth in MiByte/s
system.mem_ctrls.avgWrBWSys                      0.00                       # Average system write bandwidth in MiByte/s
system.mem_ctrls.peakBW                      12800.00                       # Theoretical peak bandwidth in MiByte/s
system.mem_ctrls.busUtil                         0.00                       # Data bus utilization in percentage
system.mem_ctrls.busUtilRead                     0.00                       # Data bus utilization in percentage for reads
system.mem_ctrls.busUtilWrite                    0.00                       # Data bus utilization in percentage for writes
system.mem_ctrls.avgRdQLen                       0.00                       # Average read queue length when enqueuing
system.mem_ctrls.avgWrQLen                       0.00                       # Average write queue length when enqueuing
system.mem_ctrls.readRowHits                        0                       # Number of row buffer hits during reads
system.mem_ctrls.writeRowHits                       0                       # Number of row buffer hits during writes
system.mem_ctrls.readRowHitRate                   nan                       # Row buffer hit rate for reads
system.mem_ctrls.writeRowHitRate                  nan                       # Row buffer hit rate for writes
system.mem_ctrls.avgGap                           nan                       # Average gap between requests
system.mem_ctrls.pageHitRate                      nan                       # Row buffer hit rate, read and write combined
system.mem_ctrls.memoryStateTime::IDLE     1964611250                       # Time in different power states
system.mem_ctrls.memoryStateTime::REF        67860000                       # Time in different power states
system.mem_ctrls.memoryStateTime::PRE_PDN            0                       # Time in different power states
system.mem_ctrls.memoryStateTime::ACT               0                       # Time in different power states
system.mem_ctrls.memoryStateTime::ACT_PDN            0                       # Time in different power states
system.mem_ctrls.actEnergy::0                       0                       # Energy for activate commands per rank (pJ)
system.mem_ctrls.actEnergy::1                       0                       # Energy for activate commands per rank (pJ)
system.mem_ctrls.preEnergy::0                       0                       # Energy for precharge commands per rank (pJ)
system.mem_ctrls.preEnergy::1                       0                       # Energy for precharge commands per rank (pJ)
system.mem_ctrls.readEnergy::0                      0                       # Energy for read commands per rank (pJ)
system.mem_ctrls.readEnergy::1                      0                       # Energy for read commands per rank (pJ)
system.mem_ctrls.writeEnergy::0                     0                       # Energy for write commands per rank (pJ)
system.mem_ctrls.writeEnergy::1                     0                       # Energy for write commands per rank (pJ)
system.mem_ctrls.refreshEnergy::0           132734160                       # Energy for refresh commands per rank (pJ)
system.mem_ctrls.refreshEnergy::1           132734160                       # Energy for refresh commands per rank (pJ)
system.mem_ctrls.actBackEnergy::0            43961535                       # Energy for active background per rank (pJ)
system.mem_ctrls.actBackEnergy::1            43961535                       # Energy for active background per rank (pJ)
system.mem_ctrls.preBackEnergy::0          1180911750                       # Energy for precharge background per rank (pJ)
system.mem_ctrls.preBackEnergy::1          1180911750                       # Energy for precharge background per rank (pJ)
system.mem_ctrls.totalEnergy::0            1357607445                       # Total energy per rank (pJ)
system.mem_ctrls.totalEnergy::1            1357607445                       # Total energy per rank (pJ)
system.mem_ctrls.averagePower::0           667.963510                       # Core power per rank (mW)
system.mem_ctrls.averagePower::1           667.963510                       # Core power per rank (mW)
system.membus.trans_dist::ReadReq             3570851                       # Transaction distribution
system.membus.trans_dist::ReadResp            3570851                       # Transaction distribution
system.membus.trans_dist::ReadExReq             15387                       # Transaction distribution
system.membus.trans_dist::ReadExResp            15387                       # Transaction distribution
system.membus.pkt_count_system.cpu.icache.mem_side::system.mem_ctrls.port      5967982                       # Packet count per connected master and slave (bytes)
system.membus.pkt_count_system.cpu.icache.mem_side::total      5967982                       # Packet count per connected master and slave (bytes)
system.membus.pkt_count_system.cpu.dcache.mem_side::system.mem_ctrls.port      1204494                       # Packet count per connected master and slave (bytes)
system.membus.pkt_count_system.cpu.dcache.mem_side::total      1204494                       # Packet count per connected master and slave (bytes)
system.membus.pkt_count::total                7172476                       # Packet count per connected master and slave (bytes)
system.membus.pkt_size_system.cpu.icache.mem_side::system.mem_ctrls.port    190975424                       # Cumulative packet size per connected master and slave (bytes)
system.membus.pkt_size_system.cpu.icache.mem_side::total    190975424                       # Cumulative packet size per connected master and slave (bytes)
system.membus.pkt_size_system.cpu.dcache.mem_side::system.mem_ctrls.port     38543808                       # Cumulative packet size per connected master and slave (bytes)
system.membus.pkt_size_system.cpu.dcache.mem_side::total     38543808                       # Cumulative packet size per connected master and slave (bytes)
system.membus.pkt_size::total               229519232                       # Cumulative packet size per connected master and slave (bytes)
system.membus.snoops                                0                       # Total snoops (count)
system.membus.snoop_fanout::samples           3586238                       # Request fanout histogram
system.membus.snoop_fanout::mean                    3                       # Request fanout histogram
system.membus.snoop_fanout::stdev                   0                       # Request fanout histogram
system.membus.snoop_fanout::underflows              0      0.00%      0.00% # Request fanout histogram
system.membus.snoop_fanout::0                       0      0.00%      0.00% # Request fanout histogram
system.membus.snoop_fanout::1                       0      0.00%      0.00% # Request fanout histogram
system.membus.snoop_fanout::2                       0      0.00%      0.00% # Request fanout histogram
system.membus.snoop_fanout::3                 3586238    100.00%    100.00% # Request fanout histogram
system.membus.snoop_fanout::4                       0      0.00%    100.00% # Request fanout histogram
system.membus.snoop_fanout::overflows               0      0.00%    100.00% # Request fanout histogram
system.membus.snoop_fanout::min_value               3                       # Request fanout histogram
system.membus.snoop_fanout::max_value               3                       # Request fanout histogram
system.membus.snoop_fanout::total             3586238                       # Request fanout histogram
system.cpu_voltage_domain.voltage                   1                       # Voltage in Volts
system.cpu_clk_domain.clock                       500                       # Clock period in ticks
system.cpu.apic_clk_domain.clock                 8000                       # Clock period in ticks
system.cpu.workload.num_syscalls                   21                       # Number of system calls
system.cpu.numCycles                          4069503                       # number of cpu cycles simulated
system.cpu.numWorkItemsStarted                      0                       # number of work items this cpu started
system.cpu.numWorkItemsCompleted                    0                       # number of work items this cpu completed
system.cpu.committedInsts                     2114178                       # Number of instructions committed
system.cpu.committedOps                       3199690                       # Number of ops (including micro ops) committed
system.cpu.num_int_alu_accesses               3161639                       # Number of integer alu accesses
system.cpu.num_fp_alu_accesses                  54914                       # Number of float alu accesses
system.cpu.num_func_calls                        2476                       # number of times a function call or return occured
system.cpu.num_conditional_control_insts        81569                       # number of instructions that are conditional controls
system.cpu.num_int_insts                      3161639                       # number of integer instructions
system.cpu.num_fp_insts                         54914                       # number of float instructions
system.cpu.num_int_register_reads             7342803                       # number of times the integer registers were read
system.cpu.num_int_register_writes            2876977                       # number of times the integer registers were written
system.cpu.num_fp_register_reads                89913                       # number of times the floating registers were read
system.cpu.num_fp_register_writes               41543                       # number of times the floating registers were written
system.cpu.num_cc_register_reads               627696                       # number of times the CC registers were read
system.cpu.num_cc_register_writes             1710894                       # number of times the CC registers were written
system.cpu.num_mem_refs                       1013157                       # number of memory refs
system.cpu.num_load_insts                      819966                       # Number of load instructions
system.cpu.num_store_insts                     193191                       # Number of store instructions
system.cpu.num_idle_cycles                   0.002000                       # Number of idle cycles
system.cpu.num_busy_cycles               4069502.998000                       # Number of busy cycles
system.cpu.not_idle_fraction                 1.000000                       # Percentage of non-idle cycles
system.cpu.idle_fraction                     0.000000                       # Percentage of idle cycles
system.cpu.Branches                             93387                       # Number of branches fetched
system.cpu.op_class::No_OpClass                  2329      0.07%      0.07% # Class of executed instruction
system.cpu.op_class::IntAlu                   2139628     66.87%     66.94% # Class of executed instruction
system.cpu.op_class::IntMult                    10193      0.32%     67.26% # Class of executed instruction
system.cpu.op_class::IntDiv                        28      0.00%     67.26% # Class of executed instruction
system.cpu.op_class::FloatAdd                   34355      1.07%     68.34% # Class of executed instruction
system.cpu.op_class::FloatCmp                       0      0.00%     68.34% # Class of executed instruction
system.cpu.op_class::FloatCvt                       0      0.00%     68.34% # Class of executed instruction
system.cpu.op_class::FloatMult                      0      0.00%     68.34% # Class of executed instruction
system.cpu.op_class::FloatDiv                       0      0.00%     68.34% # Class of executed instruction
system.cpu.op_class::FloatSqrt                      0      0.00%     68.34% # Class of executed instruction
system.cpu.op_class::SimdAdd                        0      0.00%     68.34% # Class of executed instruction
system.cpu.op_class::SimdAddAcc                     0      0.00%     68.34% # Class of executed instruction
system.cpu.op_class::SimdAlu                        0      0.00%     68.34% # Class of executed instruction
system.cpu.op_class::SimdCmp                        0      0.00%     68.34% # Class of executed instruction
system.cpu.op_class::SimdCvt                        0      0.00%     68.34% # Class of executed instruction
system.cpu.op_class::SimdMisc                       0      0.00%     68.34% # Class of executed instruction
system.cpu.op_class::SimdMult                       0      0.00%     68.34% # Class of executed instruction
system.cpu.op_class::SimdMultAcc                    0      0.00%     68.34% # Class of executed instruction
system.cpu.op_class::SimdShift                      0      0.00%     68.34% # Class of executed instruction
system.cpu.op_class::SimdShiftAcc                   0      0.00%     68.34% # Class of executed instruction
system.cpu.op_class::SimdSqrt                       0      0.00%     68.34% # Class of executed instruction
system.cpu.op_class::SimdFloatAdd                   0      0.00%     68.34% # Class of executed instruction
system.cpu.op_class::SimdFloatAlu                   0      0.00%     68.34% # Class of executed instruction
system.cpu.op_class::SimdFloatCmp                   0      0.00%     68.34% # Class of executed instruction
system.cpu.op_class::SimdFloatCvt                   0      0.00%     68.34% # Class of executed instruction
system.cpu.op_class::SimdFloatDiv                   0      0.00%     68.34% # Class of executed instruction
system.cpu.op_class::SimdFloatMisc                  0      0.00%     68.34% # Class of executed instruction
system.cpu.op_class::SimdFloatMult                  0      0.00%     68.34% # Class of executed instruction
system.cpu.op_class::SimdFloatMultAcc               0      0.00%     68.34% # Class of executed instruction
system.cpu.op_class::SimdFloatSqrt                  0      0.00%     68.34% # Class of executed instruction
system.cpu.op_class::MemRead                   819966     25.63%     93.96% # Class of executed instruction
system.cpu.op_class::MemWrite                  193191      6.04%    100.00% # Class of executed instruction
system.cpu.op_class::IprAccess                      0      0.00%    100.00% # Class of executed instruction
system.cpu.op_class::InstPrefetch                   0      0.00%    100.00% # Class of executed instruction
system.cpu.op_class::total                    3199690                       # Class of executed instruction
system.cpu.icache.tags.replacements               344                       # number of replacements
system.cpu.icache.tags.tagsinuse           375.943933                       # Cycle average of tags in use
system.cpu.icache.tags.total_refs                   0                       # Total number of references to valid blocks.
system.cpu.icache.tags.sampled_refs               775                       # Sample count of references to valid blocks.
system.cpu.icache.tags.avg_refs                     0                       # Average number of references to valid blocks.
system.cpu.icache.tags.warmup_cycle                 0                       # Cycle when the warmup percentage was hit.
system.cpu.icache.tags.occ_blocks::cpu.inst   375.943933                       # Average occupied blocks per requestor
system.cpu.icache.tags.occ_percent::cpu.inst     0.734265                       # Average percentage of cache occupancy
system.cpu.icache.tags.occ_percent::total     0.734265                       # Average percentage of cache occupancy
system.cpu.icache.tags.occ_task_id_blocks::1024          431                       # Occupied blocks per task id
system.cpu.icache.tags.age_task_id_blocks_1024::0          222                       # Occupied blocks per task id
system.cpu.icache.tags.age_task_id_blocks_1024::1            4                       # Occupied blocks per task id
system.cpu.icache.tags.age_task_id_blocks_1024::2           94                       # Occupied blocks per task id
system.cpu.icache.tags.age_task_id_blocks_1024::3          111                       # Occupied blocks per task id
system.cpu.icache.tags.occ_task_id_percent::1024     0.841797                       # Percentage of cache occupancy per task id
system.cpu.icache.tags.tag_accesses           2983991                       # Number of tag accesses
system.cpu.icache.tags.data_accesses          2983991                       # Number of data accesses
system.cpu.icache.blocked_cycles::no_mshrs            0                       # number of cycles access was blocked
system.cpu.icache.blocked_cycles::no_targets            0                       # number of cycles access was blocked
system.cpu.icache.blocked::no_mshrs                 0                       # number of cycles access was blocked
system.cpu.icache.blocked::no_targets               0                       # number of cycles access was blocked
system.cpu.icache.avg_blocked_cycles::no_mshrs          nan                       # average number of cycles each access was blocked
system.cpu.icache.avg_blocked_cycles::no_targets          nan                       # average number of cycles each access was blocked
system.cpu.icache.fast_writes                       0                       # number of fast writes performed
system.cpu.icache.cache_copies                      0                       # number of cache copies performed
system.cpu.icache.no_allocate_misses                0                       # Number of misses that were no-allocate
system.cpu.itb_walker_cache.tags.replacements            0                       # number of replacements
system.cpu.itb_walker_cache.tags.tagsinuse            0                       # Cycle average of tags in use
system.cpu.itb_walker_cache.tags.total_refs            0                       # Total number of references to valid blocks.
system.cpu.itb_walker_cache.tags.sampled_refs            0                       # Sample count of references to valid blocks.
system.cpu.itb_walker_cache.tags.avg_refs          nan                       # Average number of references to valid blocks.
system.cpu.itb_walker_cache.tags.warmup_cycle            0                       # Cycle when the warmup percentage was hit.
system.cpu.itb_walker_cache.tags.tag_accesses            0                       # Number of tag accesses
system.cpu.itb_walker_cache.tags.data_accesses            0                       # Number of data accesses
system.cpu.itb_walker_cache.blocked_cycles::no_mshrs            0                       # number of cycles access was blocked
system.cpu.itb_walker_cache.blocked_cycles::no_targets            0                       # number of cycles access was blocked
system.cpu.itb_walker_cache.blocked::no_mshrs            0                       # number of cycles access was blocked
system.cpu.itb_walker_cache.blocked::no_targets            0                       # number of cycles access was blocked
system.cpu.itb_walker_cache.avg_blocked_cycles::no_mshrs          nan                       # average number of cycles each access was blocked
system.cpu.itb_walker_cache.avg_blocked_cycles::no_targets          nan                       # average number of cycles each access was blocked
system.cpu.itb_walker_cache.fast_writes             0                       # number of fast writes performed
system.cpu.itb_walker_cache.cache_copies            0                       # number of cache copies performed
system.cpu.itb_walker_cache.no_allocate_misses            0                       # Number of misses that were no-allocate
system.cpu.dtb_walker_cache.tags.replacements            0                       # number of replacements
system.cpu.dtb_walker_cache.tags.tagsinuse            0                       # Cycle average of tags in use
system.cpu.dtb_walker_cache.tags.total_refs            0                       # Total number of references to valid blocks.
system.cpu.dtb_walker_cache.tags.sampled_refs            0                       # Sample count of references to valid blocks.
system.cpu.dtb_walker_cache.tags.avg_refs          nan                       # Average number of references to valid blocks.
system.cpu.dtb_walker_cache.tags.warmup_cycle            0                       # Cycle when the warmup percentage was hit.
system.cpu.dtb_walker_cache.tags.tag_accesses            0                       # Number of tag accesses
system.cpu.dtb_walker_cache.tags.data_accesses            0                       # Number of data accesses
system.cpu.dtb_walker_cache.blocked_cycles::no_mshrs            0                       # number of cycles access was blocked
system.cpu.dtb_walker_cache.blocked_cycles::no_targets            0                       # number of cycles access was blocked
system.cpu.dtb_walker_cache.blocked::no_mshrs            0                       # number of cycles access was blocked
system.cpu.dtb_walker_cache.blocked::no_targets            0                       # number of cycles access was blocked
system.cpu.dtb_walker_cache.avg_blocked_cycles::no_mshrs          nan                       # average number of cycles each access was blocked
system.cpu.dtb_walker_cache.avg_blocked_cycles::no_targets          nan                       # average number of cycles each access was blocked
system.cpu.dtb_walker_cache.fast_writes             0                       # number of fast writes performed
system.cpu.dtb_walker_cache.cache_copies            0                       # number of cache copies performed
system.cpu.dtb_walker_cache.no_allocate_misses            0                       # Number of misses that were no-allocate
system.cpu.dcache.tags.replacements                 1                       # number of replacements
system.cpu.dcache.tags.tagsinuse          1065.056001                       # Cycle average of tags in use
system.cpu.dcache.tags.total_refs              411029                       # Total number of references to valid blocks.
system.cpu.dcache.tags.sampled_refs              1239                       # Sample count of references to valid blocks.
system.cpu.dcache.tags.avg_refs            331.742534                       # Average number of references to valid blocks.
system.cpu.dcache.tags.warmup_cycle                 0                       # Cycle when the warmup percentage was hit.
system.cpu.dcache.tags.occ_blocks::cpu.data  1065.056001                       # Average occupied blocks per requestor
system.cpu.dcache.tags.occ_percent::cpu.data     0.130012                       # Average percentage of cache occupancy
system.cpu.dcache.tags.occ_percent::total     0.130012                       # Average percentage of cache occupancy
system.cpu.dcache.tags.occ_task_id_blocks::1024         1238                       # Occupied blocks per task id
system.cpu.dcache.tags.age_task_id_blocks_1024::0          314                       # Occupied blocks per task id
system.cpu.dcache.tags.age_task_id_blocks_1024::1          102                       # Occupied blocks per task id
system.cpu.dcache.tags.age_task_id_blocks_1024::2          423                       # Occupied blocks per task id
system.cpu.dcache.tags.age_task_id_blocks_1024::3          399                       # Occupied blocks per task id
system.cpu.dcache.tags.occ_task_id_percent::1024     0.151123                       # Percentage of cache occupancy per task id
system.cpu.dcache.tags.tag_accesses           1424379                       # Number of tag accesses
system.cpu.dcache.tags.data_accesses          1424379                       # Number of data accesses
system.cpu.dcache.ReadReq_hits::cpu.data       233108                       # number of ReadReq hits
system.cpu.dcache.ReadReq_hits::total          233108                       # number of ReadReq hits
system.cpu.dcache.WriteReq_hits::cpu.data       177921                       # number of WriteReq hits
system.cpu.dcache.WriteReq_hits::total         177921                       # number of WriteReq hits
system.cpu.dcache.demand_hits::cpu.data        411029                       # number of demand (read+write) hits
system.cpu.dcache.demand_hits::total           411029                       # number of demand (read+write) hits
system.cpu.dcache.overall_hits::cpu.data       411029                       # number of overall hits
system.cpu.dcache.overall_hits::total          411029                       # number of overall hits
system.cpu.dcache.ReadReq_misses::cpu.data           11                       # number of ReadReq misses
system.cpu.dcache.ReadReq_misses::total            11                       # number of ReadReq misses
system.cpu.dcache.WriteReq_misses::cpu.data           26                       # number of WriteReq misses
system.cpu.dcache.WriteReq_misses::total           26                       # number of WriteReq misses
system.cpu.dcache.demand_misses::cpu.data           37                       # number of demand (read+write) misses
system.cpu.dcache.demand_misses::total             37                       # number of demand (read+write) misses
system.cpu.dcache.overall_misses::cpu.data           37                       # number of overall misses
system.cpu.dcache.overall_misses::total            37                       # number of overall misses
system.cpu.dcache.ReadReq_accesses::cpu.data       233119                       # number of ReadReq accesses(hits+misses)
system.cpu.dcache.ReadReq_accesses::total       233119                       # number of ReadReq accesses(hits+misses)
system.cpu.dcache.WriteReq_accesses::cpu.data       177947                       # number of WriteReq accesses(hits+misses)
system.cpu.dcache.WriteReq_accesses::total       177947                       # number of WriteReq accesses(hits+misses)
system.cpu.dcache.demand_accesses::cpu.data       411066                       # number of demand (read+write) accesses
system.cpu.dcache.demand_accesses::total       411066                       # number of demand (read+write) accesses
system.cpu.dcache.overall_accesses::cpu.data       411066                       # number of overall (read+write) accesses
system.cpu.dcache.overall_accesses::total       411066                       # number of overall (read+write) accesses
system.cpu.dcache.ReadReq_miss_rate::cpu.data     0.000047                       # miss rate for ReadReq accesses
system.cpu.dcache.ReadReq_miss_rate::total     0.000047                       # miss rate for ReadReq accesses
system.cpu.dcache.WriteReq_miss_rate::cpu.data     0.000146                       # miss rate for WriteReq accesses
system.cpu.dcache.WriteReq_miss_rate::total     0.000146                       # miss rate for WriteReq accesses
system.cpu.dcache.demand_miss_rate::cpu.data     0.000090                       # miss rate for demand accesses
system.cpu.dcache.demand_miss_rate::total     0.000090                       # miss rate for demand accesses
system.cpu.dcache.overall_miss_rate::cpu.data     0.000090                       # miss rate for overall accesses
system.cpu.dcache.overall_miss_rate::total     0.000090                       # miss rate for overall accesses
system.cpu.dcache.blocked_cycles::no_mshrs            0                       # number of cycles access was blocked
system.cpu.dcache.blocked_cycles::no_targets            0                       # number of cycles access was blocked
system.cpu.dcache.blocked::no_mshrs                 0                       # number of cycles access was blocked
system.cpu.dcache.blocked::no_targets               0                       # number of cycles access was blocked
system.cpu.dcache.avg_blocked_cycles::no_mshrs          nan                       # average number of cycles each access was blocked
system.cpu.dcache.avg_blocked_cycles::no_targets          nan                       # average number of cycles each access was blocked
system.cpu.dcache.fast_writes                       0                       # number of fast writes performed
system.cpu.dcache.cache_copies                      0                       # number of cache copies performed
system.cpu.dcache.no_allocate_misses                0                       # Number of misses that were no-allocate

---------- End Simulation Statistics   ----------
